7
multiplicity=2 
  C   -0.010575024  -0.695857445   0.000000000
  C   -0.010575024   0.795184007   0.000000000
  H    1.009082727  -1.099683157   0.000000000
  H   -0.508620261  -1.095481490   0.883419015
  H   -0.508620261  -1.095481490  -0.883419015
  H    0.067528833   1.347343382  -0.924319122
  H    0.067528833   1.347343382   0.924319122
