7
multiplicity=2 
  C   -0.567875938   0.000051000  -0.218958183
  C    0.751140588  -0.000036000   0.041932002
  H   -1.493883134  -0.000488000   1.531766931
  H   -1.101694030   0.920651923  -0.408626407
  H   -1.102022120  -0.920233873  -0.409110075
  H    1.299130046  -0.922345291   0.173763274
  H    1.298897208   0.922324123   0.174362832
