8

  C   -0.763094701   0.000000000   0.000000000
  C    0.763094701   0.000000000   0.000000000
  H    1.158310699  -0.443642063  -0.914095418
  H   -1.158310699  -1.013326728  -0.074639916
  H    1.158310699  -0.569812726   0.841254175
  H    1.158310699   1.013453730   0.072848122
  H   -1.158310699   0.442020135   0.914883892
  H   -1.158310699   0.571305006  -0.840243447
