10
multiplicity=2 
  C   -0.472132434   0.645934868  -0.000043000
  C   -1.382618335  -0.363885003  -0.000002000
  H   -0.232044206   1.164576158  -0.917265189
  H   -0.232342133   1.164761370   0.917169937
  H   -1.727128572  -0.809810465   0.922519919
  H   -1.726938069  -0.810133264  -0.922435251
  C    1.612016654  -0.242189062   0.000035000
  H    2.195180521   0.668673612  -0.001268999
  H    1.589426079  -0.809619962  -0.918630467
  H    1.590246304  -0.807598505   0.919969285
