13

  C   -2.055636492  -0.612273905   0.000007000
  C   -1.231099024   0.640447300   0.000049000
  C    0.105633825   0.734275711   0.000026000
  C    1.057555359  -0.374407163  -0.000044000
  C    2.383583483  -0.198936234  -0.000036000
  H   -2.705085096  -0.641595614   0.877132390
  H   -2.705127430  -0.641505654  -0.877090056
  H   -1.451331995  -1.516082118  -0.000055000
  H   -1.793667315   1.567586936   0.000103000
  H    0.545756330   1.725641584   0.000064000
  H    0.665260419  -1.383242764  -0.000105000
  H    3.064692759  -1.037721797  -0.000088000
  H    2.819276246   0.792284116   0.000023000
