6
multiplicity=2 
  H   -0.017475019  -2.259406759   0.000000000
 Cl    0.000666001  -0.619962850   0.000000000
  C    0.000666001   1.327329900   0.000000000
  H   -1.043389285   1.611804983   0.000000000
  H    0.522775222   1.611487477   0.904284472
  H    0.522775222   1.611487477  -0.904284472
