6
multiplicity=2 
  H    0.000450000   2.000967194   0.000000000
  F   -0.000035000   0.762480856   0.000000000
  C   -0.000035000  -0.906168343   0.000000000
  H    1.053761158  -1.141572824   0.000000000
  H   -0.526845124  -1.142356007   0.912354425
  H   -0.526845124  -1.142356007  -0.912354425
