7
charge=-1 
  C   -1.297997607  -0.389518347  -0.000034000
  O   -0.477223119   0.728020836   0.000054000
  H   -2.351922811  -0.080232261  -0.008639030
  H   -1.140853143  -1.035822051  -0.878100784
  H   -1.153177681  -1.027513969   0.886361240
  H    0.510580334   0.371160131   0.000243000
  F    1.749015342  -0.190517024  -0.000010000
