6
multiplicity=2 
  C   -1.800620703   0.168058215   0.217373297
  H   -2.151645112  -0.764385894  -0.204420097
  H   -2.000342765   1.060772756  -0.360345337
  H   -1.875139438   0.266062363   1.292282493
  H   -0.420025942   0.039365016   0.050855041
 Cl    1.014760798  -0.094714783  -0.122506111
