6
multiplicity=2 
  N   -1.150817550  -0.043932027  -0.102558776
  O    1.179186740  -0.092695972  -0.010290010
  H   -1.303183544  -0.547640201   0.766571396
  H   -1.338913589   0.935807559   0.091854051
  H   -0.030686986  -0.153833931  -0.353183982
  H    1.295007756   0.814752981   0.294990893
