7
multiplicity=3 
  C   -1.199575938  -0.011126004  -0.000030000
  N    1.400716195   0.129862204   0.000015000
  H   -1.426661754  -0.512931997   0.933055837
  H   -1.419909452  -0.591381989  -0.888144568
  H   -1.520236159   1.022804292  -0.045783036
  H    0.188926318   0.126896165   0.001001002
  H    1.570338657  -0.887668308  -0.000053000
