8
multiplicity=2 
  C   -1.260748823  -0.000006000   0.012290987
  N    1.313253786  -0.000005000  -0.136782254
  H   -1.583986138   0.908539057  -0.484744315
  H   -1.463672408  -0.004573001   1.077304252
  H   -1.584748153  -0.903882298  -0.492699965
  H    0.043107992  -0.000064000  -0.151691822
  H    1.480457909   0.805577048   0.467751376
  H    1.480558452  -0.805524130   0.467807998
